72

H     0.2368260   -2.1319546    5.4543336
C     0.1485143   -1.1934169    5.9842746
C     0.1471486   -1.1927823    7.3708550
C     0.0000000    0.0000000    8.0705272
C    -0.1471486    1.1927823    7.3708550
C    -0.1485143    1.1934169    5.9842746
C     0.0000000    0.0000000    5.2657786
H     0.2532646   -2.1262407    7.9069955
H     0.0000000    0.0000000    9.1519519
H    -0.2532646    2.1262407    7.9069955
H    -0.2368260    2.1319546    5.4543336
C     0.0000000    0.0000000    3.7974878
C     0.7068543   -0.9519187    3.0579096
H     1.3313819   -1.6758684    3.5573509
C    -0.7068543    0.9519187    3.0579096
H    -1.3313819    1.6758684    3.5573509
C     0.7416567   -0.9361114    1.6798861
C     1.6497859   -1.8621598    0.9672059
C    -0.7416567    0.9361114    1.6798861
C    -1.6497859    1.8621598    0.9672059
N     0.0000000    0.0000000    0.9819459
C     0.0000000    0.0000000   -0.4389625
C    -0.2570335   -1.1824772   -1.1383218
H    -0.4908495   -2.0816374   -0.5861629
C     0.2570335    1.1824772   -1.1383218
C    -0.2521850   -1.2230264   -2.5116293
C     0.2521850    1.2230264   -2.5116293
H     0.4908495    2.0816374   -0.5861629
C     0.4873541    2.5100644   -3.1918253
C    -0.4873541   -2.5100644   -3.1918253
C     0.0000000    0.0000000   -3.2887197
O     0.0000000    0.0000000   -4.5293568
C     1.6007005   -3.2250699    1.2608387
H     0.8575383   -3.5954982    1.9544762
C     2.5976190   -1.3973546    0.0501526
H     2.6381561   -0.3475257   -0.2000371
C     3.4700764   -2.2832360   -0.5588212
H     4.1945203   -1.9118861   -1.2704013
C     2.4724594   -4.1124577    0.6408472
C     3.4072006   -3.6445210   -0.2717960
H     4.0785664   -4.3340047   -0.7649508
H     2.4100724   -5.1688525    0.8640843
C    -2.5976190    1.3973546    0.0501526
H    -2.6381561    0.3475257   -0.2000371
C    -3.4700764    2.2832360   -0.5588212
C    -1.6007005    3.2250699    1.2608387
H    -4.1945203    1.9118861   -1.2704013
C    -2.4724594    4.1124577    0.6408472
C    -3.4072006    3.6445210   -0.2717960
H    -0.8575383    3.5954982    1.9544762
H    -2.4100724    5.1688525    0.8640843
H    -4.0785664    4.3340047   -0.7649508
C     0.0328649   -3.6924084   -2.6466677
H     0.6548625   -3.6406956   -1.7631245
C    -1.2350376   -2.6030977   -4.3727945
C    -1.4748632   -3.8361640   -4.9630336
H    -1.6144931   -1.7007676   -4.8245863
C    -0.9652416   -5.0027683   -4.4022119
C    -0.2048805   -4.9238816   -3.2411478
H    -2.0613619   -3.8857433   -5.8715248
H    -1.1492507   -5.9605563   -4.8711877
H     0.2158572   -5.8207884   -2.8043117
C     1.2350376    2.6030977   -4.3727945
H     1.6144931    1.7007676   -4.8245863
C    -0.0328649    3.6924084   -2.6466677
C     1.4748632    3.8361640   -4.9630336
C     0.9652416    5.0027683   -4.4022119
C     0.2048805    4.9238816   -3.2411478
H     2.0613619    3.8857433   -5.8715248
H     1.1492507    5.9605563   -4.8711877
H    -0.2158572    5.8207884   -2.8043117
H    -0.6548625    3.6406956   -1.7631245
